136
 i =       47, E =     -4043.8485700335
Cd   12.318074   13.562490   10.963314
Cd   12.417358   10.882774   14.269786
Cd   10.032250   14.341089   14.384636
Cd   15.737154   15.828152   10.109261
Cd   15.830860   13.030989   13.269790
Cd   13.405996   16.762409   13.522366
Cd   15.748940   10.334140   16.598314
Cd   13.417722   13.886012   16.919609
Cd   11.238263   17.526316   17.081059
Cd   19.255016   15.383705   12.536061
Cd   16.931705   18.994604   12.788769
Cd   19.225927   12.677275   15.754598
Cd   17.060671   16.289068   16.027203
Cd   14.657369   19.775652   16.224937
Cd   16.946882   13.500906   19.280651
Cd   14.702205   16.928228   19.384394
Se   13.804112   11.686804   12.136617
Se   11.274852   15.575725   12.367542
Se   11.273316   12.588262   15.961990
Se   17.357944   14.031553   11.248033
Se   14.851030   17.916759   11.512980
Se   17.330088   11.194741   14.616586
Se   14.939104   14.990449   14.930855
Se   12.476547   18.769657   15.067637
Se   14.855709   12.093981   18.397642
Se   12.455873   15.723708   18.619631
Se   18.640409   17.430614   14.124783
Se   18.614340   14.597169   17.496298
Se   16.279678   18.247778   17.686159
Cd   11.541389   10.498068    8.381766
Cd    9.108272   14.485162    8.726488
Cd   11.088380    7.971183   11.317047
Cd    8.868819   10.953229   11.644655
Cd    6.964868   15.146918   12.049323
Cd    9.068226    8.786483   15.547443
Cd    6.956066   12.188147   15.560141
Cd   14.652490   12.540733    7.429171
Cd   12.188495   16.464487    7.714230
Cd   14.718124    9.621162   10.384385
Cd    9.760873   17.521795   10.928149
Cd   14.444105    7.205479   13.614755
Cd    7.763037   18.067202   14.494000
Cd   12.160618    8.118004   17.585234
Cd    9.729006   11.483172   18.097647
Cd    7.749949   15.107698   18.009422
Cd   17.877554   14.558155    6.966318
Cd   15.305650   18.599651    7.232421
Cd   18.143896   11.830094    9.611870
Cd   13.118917   19.723818   10.152766
Cd   18.095331    9.208686   12.726043
Cd   10.898021   20.551111   13.484717
Cd   17.701994    7.034784   15.795461
Cd    9.115133   20.838966   16.869316
Cd   15.259268    8.001664   19.786823
Cd   13.094537   11.073274   20.391384
Cd   10.864177   14.487924   20.652294
Cd    9.109248   17.875977   20.380053
Cd   21.188887   14.125087    9.274618
Cd   19.009420   17.972872    9.589625
Cd   16.432528   21.576723    9.757353
Cd   21.433666   11.665595   12.183400
Cd   14.489416   22.568623   12.884252
Cd   21.100712    9.218258   15.104143
Cd   12.335812   23.047804   15.974066
Cd   18.959457   10.186822   18.825268
Cd   12.565970   20.753450   19.941591
Cd   16.380878   10.973994   22.311279
Cd   14.470758   14.231373   22.760942
Cd   12.284023   17.286337   22.742577
Cd   22.522930   17.658718   12.267921
Cd   20.344809   21.074184   12.489897
Cd   22.737587   15.115017   15.105971
Cd   20.757412   18.765221   15.488023
Cd   18.271030   22.120304   15.533937
Cd   22.442137   12.786327   18.122654
Cd   20.713099   16.161558   18.612631
Cd   18.490839   19.632877   18.852842
Cd   16.140118   22.674341   18.674162
Cd   20.209005   13.697976   21.436352
Cd   18.129942   16.993425   21.895273
Cd   15.764347   20.389717   21.818050
Se   12.596825    8.337448    9.230923
Se   10.187226   12.318550    9.742670
Se    7.562981   16.216421    9.796596
Se   10.292223    9.508733   13.354048
Se    7.855554   12.948150   13.197878
Se    7.504957   10.163263   17.030586
Se   16.148560   10.647048    8.371820
Se   13.714591   14.597866    8.896421
Se   11.138628   18.523220    8.888256
Se   16.115931    7.799724   11.715488
Se    8.740014   19.394049   12.489895
Se   13.732570    8.940868   15.569677
Se    9.089119   16.289562   16.004543
Se   11.111832    9.635961   19.410681
Se    8.697383   13.346021   19.662306
Se   19.747623   12.927311    7.553405
Se   17.259317   16.945686    7.971724
Se   14.641749   20.907581    8.076656
Se   19.761101   10.170393   10.895238
Se   12.362878   21.771879   11.634722
Se   19.650625    7.347651   14.170889
Se    9.957474   22.568138   15.173791
Se   17.239883    8.395666   18.058250
Se   10.369218   19.597534   18.826851
Se   14.584240    9.214196   21.920584
Se   12.338861   12.877380   22.160784
Se    9.890137   16.467501   22.371605
Se   20.926886   16.471533   10.502019
Se   18.505033   20.234793   10.757039
Se   20.833258   13.677929   13.861568
Se   16.132816   21.011129   14.327610
Se   20.866983   10.852770   17.191198
Se   13.781044   21.848726   17.809263
Se   18.491882   11.717715   20.873714
Se   16.157665   15.363752   21.005318
Se   13.776488   18.729733   21.155851
Se   22.385071   19.899267   13.466280
Se   22.364935   17.078703   16.747078
Se   19.980473   20.800037   16.963743
Se   22.291681   14.364245   20.112444
Se   19.956757   17.996162   20.341543
Se   17.611753   21.643963   20.483828
Se   10.288218   15.067416    6.588240
Se   16.132156   12.670111   24.110512
Se   24.101156   13.207055   16.303268
Se    6.915307   17.201572   19.363913
Se   17.059269   18.772718   23.419300
Se   12.494540   11.603898    6.319214
Se    5.725448   14.055890   16.697395
Se   19.373287   15.061358   23.319305
Se   23.009293   12.914105   10.472188
Se   13.788713   17.285080    5.769455
Se   15.974711   13.856028    5.537918
Se   13.780013   16.138460   24.401918
Se    6.918761   19.764490   16.319189
